@<TRIPOS>MOLECULE
LIG1
   53    56     1     0     0
SMALL
bcc


@<TRIPOS>ATOM
      1 C1         21.2060    9.9350   63.0810 C.3       1 LIG1     -0.0688
      2 C10        22.6140   10.0230   62.4340 C.3       1 LIG1     -0.0061
      3 C19        23.4270   11.2460   63.0070 C.3       1 LIG1     -0.0852
      4 H27        23.6760   11.9060   62.2170 H         1 LIG1      0.0425
      5 H26        24.3140   10.8960   63.4670 H         1 LIG1      0.0431
      6 H25        22.8370   11.7580   63.7220 H         1 LIG1      0.0371
      7 C9         22.4340   10.0950   60.8720 C.3       1 LIG1     -0.0507
      8 C11        21.6330   11.3540   60.4500 C.3       1 LIG1     -0.0759
      9 C12        21.4320   11.4340   58.9110 C.3       1 LIG1     -0.0674
     10 C13        22.7860   11.4040   58.1690 C.3       1 LIG1     -0.0294
     11 C18        23.6590   12.6770   58.4540 C.3       1 LIG1     -0.0933
     12 H24        23.8520   13.1830   57.5440 H         1 LIG1      0.0514
     13 H23        24.5760   12.3850   58.8970 H         1 LIG1      0.0407
     14 H22        23.1380   13.3220   59.1130 H         1 LIG1      0.0348
     15 C17        22.7140   11.1490   56.6270 C.3       1 LIG1     -0.1667
     16 C20        22.3750   12.3880   55.7810 C.2       1 LIG1      0.5766
     17 C21        21.0090   12.9760   55.8570 C.3       1 LIG1     -0.2023
     18 H30        20.5610   12.9540   54.8980 H         1 LIG1      0.0708
     19 H29        21.0740   13.9780   56.1930 H         1 LIG1      0.0687
     20 H28        20.4200   12.4140   56.5350 H         1 LIG1      0.0522
     21 O2         23.2120   12.8760   55.0520 O.2       1 LIG1     -0.5371
     22 H21        21.8850   10.5270   56.4100 H         1 LIG1      0.0636
     23 C16        24.0720   10.4500   56.2670 C.3       1 LIG1     -0.0771
     24 H20        23.9150    9.6370   55.6060 H         1 LIG1      0.0442
     25 H19        24.7460   11.1380   55.8270 H         1 LIG1      0.0728
     26 C15        24.6740    9.9180   57.6180 C.3       1 LIG1     -0.0764
     27 H18        24.9680    8.9020   57.5640 H         1 LIG1      0.0469
     28 H17        25.4870   10.5030   57.9630 H         1 LIG1      0.0487
     29 C14        23.4830   10.0600   58.5980 C.3       1 LIG1     -0.0579
     30 H16        22.8360    9.2640   58.3360 H         1 LIG1      0.0514
     31 C8         23.7890    9.9970   60.0980 C.3       1 LIG1     -0.0473
     32 H10        24.4320   10.7860   60.3900 H         1 LIG1      0.0616
     33 C7         24.4490    8.6370   60.4430 C.3       1 LIG1     -0.0791
     34 H9         23.8070    7.8730   60.0900 H         1 LIG1      0.0444
     35 H8         25.3710    8.5900   59.9250 H         1 LIG1      0.0440
     36 C6         24.6970    8.4430   61.9510 C.3       1 LIG1     -0.0520
     37 H7         25.0050    7.4420   62.1060 H         1 LIG1      0.0559
     38 H6         25.4750    9.1000   62.2420 H         1 LIG1      0.0564
     39 C5         23.4530    8.7270   62.7850 C.2       1 LIG1     -0.0433
     40 C4         23.1180    7.8720   63.7340 C.2       1 LIG1     -0.2513
     41 H5         23.6960    6.9690   63.8360 H         1 LIG1      0.1514
     42 C3         22.0000    8.1250   64.6300 C.2       1 LIG1      0.5626
     43 O1         21.7010    7.3010   65.5120 O.2       1 LIG1     -0.5423
     44 C2         21.2410    9.4460   64.5510 C.3       1 LIG1     -0.1812
     45 H4         20.2510    9.3060   64.9000 H         1 LIG1      0.0778
     46 H3         21.7280   10.1690   65.1520 H         1 LIG1      0.0723
     47 H15        20.9330   12.3350   58.6670 H         1 LIG1      0.0407
     48 H14        20.8510   10.6100   58.5880 H         1 LIG1      0.0413
     49 H13        22.1530   12.2230   60.7590 H         1 LIG1      0.0476
     50 H12        20.6770   11.3330   60.9060 H         1 LIG1      0.0408
     51 H11        21.8040    9.2950   60.5830 H         1 LIG1      0.0482
     52 H2         20.6070    9.2560   62.5320 H         1 LIG1      0.0551
     53 H1         20.7530   10.8920   63.0720 H         1 LIG1      0.0453
@<TRIPOS>BOND
     1    1    2 1   
     2    1   44 1   
     3    1   52 1   
     4    1   53 1   
     5    2    3 1   
     6    2    7 1   
     7    2   39 1   
     8    3    4 1   
     9    3    5 1   
    10    3    6 1   
    11    7    8 1   
    12    7   31 1   
    13    7   51 1   
    14    8    9 1   
    15    8   49 1   
    16    8   50 1   
    17    9   10 1   
    18    9   47 1   
    19    9   48 1   
    20   10   11 1   
    21   10   15 1   
    22   10   29 1   
    23   11   12 1   
    24   11   13 1   
    25   11   14 1   
    26   15   16 1   
    27   15   22 1   
    28   15   23 1   
    29   16   17 1   
    30   16   21 2   
    31   17   18 1   
    32   17   19 1   
    33   17   20 1   
    34   23   24 1   
    35   23   25 1   
    36   23   26 1   
    37   26   27 1   
    38   26   28 1   
    39   26   29 1   
    40   29   30 1   
    41   29   31 1   
    42   31   32 1   
    43   31   33 1   
    44   33   34 1   
    45   33   35 1   
    46   33   36 1   
    47   36   37 1   
    48   36   38 1   
    49   36   39 1   
    50   39   40 2   
    51   40   41 1   
    52   40   42 1   
    53   42   43 2   
    54   42   44 1   
    55   44   45 1   
    56   44   46 1   
@<TRIPOS>SUBSTRUCTURE
     1 LIG1        1 TEMP              0 ****  ****    0 ROOT
